                                  MODFLOW-USG      
      U.S. GEOLOGICAL SURVEY MODULAR FINITE-DIFFERENCE GROUNDWATER FLOW MODEL
                            VERSION 1.5.00 02/27/2019

 LIST FILE: freyberg.usg.list
                         UNIT    2

 OPENING freyberg.usg.disu
 FILE TYPE:DISU   UNIT   11   STATUS:OLD    
 FORMAT:FORMATTED              ACCESS:SEQUENTIAL          

 OPENING freyberg.usg.bas
 FILE TYPE:BAS6   UNIT   13   STATUS:OLD    
 FORMAT:FORMATTED              ACCESS:SEQUENTIAL          

 OPENING freyberg.usg.lpf
 FILE TYPE:LPF   UNIT   15   STATUS:OLD    
 FORMAT:FORMATTED              ACCESS:SEQUENTIAL          

 OPENING freyberg.usg.sms
 FILE TYPE:SMS   UNIT   32   STATUS:OLD    
 FORMAT:FORMATTED              ACCESS:SEQUENTIAL          

 OPENING freyberg.usg.oc
 FILE TYPE:OC   UNIT   14   STATUS:OLD    
 FORMAT:FORMATTED              ACCESS:SEQUENTIAL          

 OPENING freyberg.usg.wel
 FILE TYPE:WEL   UNIT   20   STATUS:OLD    
 FORMAT:FORMATTED              ACCESS:SEQUENTIAL          

 OPENING freyberg.usg.sfr
 FILE TYPE:SFR   UNIT   28   STATUS:OLD    
 FORMAT:FORMATTED              ACCESS:SEQUENTIAL          

 OPENING freyberg.usg.gnc
 FILE TYPE:GNC   UNIT   29   STATUS:OLD    
 FORMAT:FORMATTED              ACCESS:SEQUENTIAL          

 OPENING freyberg.usg.ghb
 FILE TYPE:GHB   UNIT   30   STATUS:OLD    
 FORMAT:FORMATTED              ACCESS:SEQUENTIAL          

 OPENING freyberg.usg.rch
 FILE TYPE:RCH   UNIT   31   STATUS:OLD    
 FORMAT:FORMATTED              ACCESS:SEQUENTIAL          

 OPENING freyberg.usg.cbc
 FILE TYPE:DATA(BINARY)   UNIT   50   STATUS:REPLACE
 FORMAT:BINARY                 ACCESS:SEQUENTIAL          

 OPENING freyberg.usg.hds
 FILE TYPE:DATA(BINARY)   UNIT   51   STATUS:REPLACE
 FORMAT:BINARY                 ACCESS:SEQUENTIAL          

 OPENING freyberg.usg.sfr.out
 FILE TYPE:DATA   UNIT   60   STATUS:UNKNOWN
 FORMAT:FORMATTED              ACCESS:SEQUENTIAL          

 BAS -- BASIC PACKAGE-USG      1.5.00 02/27/2019                        INPUT READ FROM UNIT   13
 
 # BAS6 package for  MODFLOW-USG, generated by Flopy.                            
 THE FREE FORMAT OPTION HAS BEEN SELECTED
 THE UNSTRUCTURED GRID OPTION HAS BEEN SELECTED

 DIS -- UNSTRUCTURED GRID DISCRETIZATION PACKAGE, VERSION 1 : 5/17/2010 - INPUT READ FROM UNIT   11
 # DISU package for  MODFLOW-USG, generated by Flopy.
       4497 NODES         3 NLAY     29255 NJAG  VERT. SUBDISCRETIZATION INDEX, IVSD =  0
 INDEX FOR INPUT OF UNSTRUCTURED, FINITE-VOLUME CONNECTIVITY INFORMATION, IDSYMRD =   0
   25 STRESS PERIOD(S) IN SIMULATION
 MODEL TIME UNIT IS DAYS
 MODEL LENGTH UNIT IS FEET
  Confining bed flag for each layer:
   0   0   0

 GNCn -- GHOST NODE CORRECTION PACKAGE WITH n ADJACENT CONTRIBUTING NODES VERSION 1, 6/18/2011.
   INPUT READ FROM UNIT   29
     0 PARAMETERS DEFINE A MAXIMUM OF      0 GHOST NODE CORRECTION LOCATIONS
   2280 GHOST NODE CORRECTION LOCATIONS NOT DEFINED BY PARAMETERS
  MAXIMUM NUMBER OF ADJACENT CONTRIBUTING NODES =      2
  FLAG INDICATING SECOND-ORDER CORRECTION ON TRANSMISSIVITY TERM FOR UNCONFINED FLOW, I2Kn =      0
  FLAG FOR SYMMETRIC IMPLEMENTATION OF GNCn, ISYMGNCn =      1
  FLAG FOR INPUT OF SATURATED CONDUCTANCES, IFLALPHAn =      0


     0 GNC parameters

   2280 GHOST NODES NOT DEFINED BY PARAMETERS

 GNC-NODE    NODEn   NODEm    NODESj FACTORSj    
 ---------------------------------------------------
       1         15         21    47.0000        47.0000       0.125000       0.125000    
       2         16         19    21.0000        21.0000       0.125000       0.125000    
       3         26         20    28.0000        28.0000       0.125000       0.125000    
       4         21         22    16.0000        16.0000       0.125000       0.125000    
       5         28         23    26.0000        26.0000       0.125000       0.125000    
       6         21         24    48.0000        48.0000       0.125000       0.125000    
       7         28         25    58.0000        58.0000       0.125000       0.125000    
       8         30         29    62.0000        62.0000       0.125000       0.125000    
       9         47         48    15.0000        15.0000       0.125000       0.125000    
      10         47         53    79.0000        79.0000       0.125000       0.125000    
      11         48         49    21.0000        21.0000       0.125000       0.125000    
      12         58         50    28.0000        28.0000       0.125000       0.125000    
      13         48         51    53.0000        53.0000       0.125000       0.125000    
      14         58         52    60.0000        60.0000       0.125000       0.125000    
      15         53         54    48.0000        48.0000       0.125000       0.125000    
      16         60         55    58.0000        58.0000       0.125000       0.125000    
      17         53         56    80.0000        80.0000       0.125000       0.125000    
      18         60         57    90.0000        90.0000       0.125000       0.125000    
      19         62         59    30.0000        30.0000       0.125000       0.125000    
      20         62         61    94.0000        94.0000       0.125000       0.125000    
      21         79         80    47.0000        47.0000       0.125000       0.125000    
      22         79         85    111.000        111.000       0.125000       0.125000    
      23         80         81    53.0000        53.0000       0.125000       0.125000    
      24         90         82    60.0000        60.0000       0.125000       0.125000    
      25         80         83    85.0000        85.0000       0.125000       0.125000    
      26         90         84    92.0000        92.0000       0.125000       0.125000    
      27         85         86    80.0000        80.0000       0.125000       0.125000    
      28         92         87    90.0000        90.0000       0.125000       0.125000    
      29         85         88    112.000        112.000       0.125000       0.125000    
      30         92         89    122.000        122.000       0.125000       0.125000    
      31         94         91    62.0000        62.0000       0.125000       0.125000    
      32         94         93    126.000        126.000       0.125000       0.125000    
      33        111        112    79.0000        79.0000       0.125000       0.125000    
      34        111        117    143.000        143.000       0.125000       0.125000    
      35        112        113    85.0000        85.0000       0.125000       0.125000    
      36        122        114    92.0000        92.0000       0.125000       0.125000    
      37        112        115    117.000        117.000       0.125000       0.125000    
      38        122        116    124.000        124.000       0.125000       0.125000    
      39        117        118    112.000        112.000       0.125000       0.125000    
      40        124        119    122.000        122.000       0.125000       0.125000    
      41        117        120    144.000        144.000       0.125000       0.125000    
      42        124        121    154.000        154.000       0.125000       0.125000    
      43        126        123    94.0000        94.0000       0.125000       0.125000    
      44        126        125    158.000        158.000       0.125000       0.125000    
      45        143        144    111.000        111.000       0.125000       0.125000    
      46        143        149    175.000        175.000       0.125000       0.125000    
      47        144        145    117.000        117.000       0.125000       0.125000    
      48        154        146    124.000        124.000       0.125000       0.125000    
      49        144        147    149.000        149.000       0.125000       0.125000    
      50        154        148    156.000        156.000       0.125000       0.125000    
      51        149        150    144.000        144.000       0.125000       0.125000    
      52        156        151    154.000        154.000       0.125000       0.125000    
      53        149        152    176.000        176.000       0.125000       0.125000    
      54        156        153    186.000        186.000       0.125000       0.125000    
      55        158        155    126.000        126.000       0.125000       0.125000    
      56        158        157    190.000        190.000       0.125000       0.125000    
      57        175        176    143.000        143.000       0.125000       0.125000    
      58        175        181    207.000        207.000       0.125000       0.125000    
      59        176        177    149.000        149.000       0.125000       0.125000    
      60        186        178    156.000        156.000       0.125000       0.125000    
      61        176        179    181.000        181.000       0.125000       0.125000    
      62        186        180    188.000        188.000       0.125000       0.125000    
      63        181        182    176.000        176.000       0.125000       0.125000    
      64        188        183    186.000        186.000       0.125000       0.125000    
      65        181        184    208.000        208.000       0.125000       0.125000    
      66        188        185    218.000        218.000       0.125000       0.125000    
      67        190        187    158.000        158.000       0.125000       0.125000    
      68        190        189    222.000        222.000       0.125000       0.125000    
      69        207        208    175.000        175.000       0.125000       0.125000    
      70        207        213    239.000        239.000       0.125000       0.125000    
      71        208        209    181.000        181.000       0.125000       0.125000    
      72        218        210    188.000        188.000       0.125000       0.125000    
      73        208        211    213.000        213.000       0.125000       0.125000    
      74        218        212    220.000        220.000       0.125000       0.125000    
      75        213        214    208.000        208.000       0.125000       0.125000    
      76        220        215    218.000        218.000       0.125000       0.125000    
      77        213        216    240.000        240.000       0.125000       0.125000    
      78        220        217    250.000        250.000       0.125000       0.125000    
      79        222        219    190.000        190.000       0.125000       0.125000    
      80        222        221    254.000        254.000       0.125000       0.125000    
      81        239        240    207.000        207.000       0.125000       0.125000    
      82        239        245    271.000        271.000       0.125000       0.125000    
      83        240        241    213.000        213.000       0.125000       0.125000    
      84        250        242    220.000        220.000       0.125000       0.125000    
      85        240        243    245.000        245.000       0.125000       0.125000    
      86        250        244    252.000        252.000       0.125000       0.125000    
      87        245        246    240.000        240.000       0.125000       0.125000    
      88        252        247    250.000        250.000       0.125000       0.125000    
      89        245        248    272.000        272.000       0.125000       0.125000    
      90        252        249    282.000        282.000       0.125000       0.125000    
      91        254        251    222.000        222.000       0.125000       0.125000    
      92        254        253    286.000        286.000       0.125000       0.125000    
      93        271        272    239.000        239.000       0.125000       0.125000    
      94        271        277    303.000        303.000       0.125000       0.125000    
      95        272        273    245.000        245.000       0.125000       0.125000    
      96        282        274    252.000        252.000       0.125000       0.125000    
      97        272        275    277.000        277.000       0.125000       0.125000    
      98        282        276    284.000        284.000       0.125000       0.125000    
      99        277        278    272.000        272.000       0.125000       0.125000    
     100        284        279    282.000        282.000       0.125000       0.125000    
     101        277        280    304.000        304.000       0.125000       0.125000    
     102        284        281    314.000        315.000       0.166667       0.166667    
     103        286        283    254.000        254.000       0.125000       0.125000    
     104        286        285    342.000        343.000       0.166667       0.166667    
     105        303        304    271.000        271.000       0.125000       0.125000    
     106        303        309    365.000        365.000       0.125000       0.125000    
     107        304        305    277.000        277.000       0.125000       0.125000    
     108        304        307    309.000        309.000       0.125000       0.125000    
     109        309        310    304.000        304.000       0.125000       0.125000    
     110        309        312    366.000        366.000       0.125000       0.125000    
     111        284        314    279.000        281.000       0.166667       0.166667    
     112        284        315    285.000        285.000       0.125000       0.125000    
     113        315        317    314.000        314.000       0.125000       0.125000    
     114        316        317    314.000        314.000       0.125000       0.125000    
     115        315        318    321.000        321.000       0.125000       0.125000    
     116        316        319    328.000        328.000       0.125000       0.125000    
     117        285        321    284.000        284.000       0.125000       0.125000    
     118        285        322    286.000        286.000       8.333330E-02   8.333330E-02
     119        342        322    286.000        286.000       8.333330E-02   8.333330E-02
     120        342        327    344.000        344.000       0.125000       0.125000    
     121        321        323    315.000        315.000       0.125000       0.125000    
     122        321        324    322.000        322.000       0.125000       0.125000    
     123        327        324    322.000        322.000       0.125000       0.125000    
     124        327        326    339.000        339.000       0.125000       0.125000    
     125        376        333    368.000        370.000       0.166667       0.166667    
     126        376        334    377.000        377.000       0.125000       0.125000    
     127        328        329    316.000        316.000       0.125000       0.125000    
     128        334        331    333.000        333.000       0.125000       0.125000    
     129        328        331    333.000        333.000       0.125000       0.125000    
     130        334        332    340.000        340.000       0.125000       0.125000    
     131        344        339    342.000        342.000       0.125000       0.125000    
     132        377        340    376.000        376.000       0.125000       0.125000    
     133        344        341    380.000        380.000       8.333330E-02   8.333330E-02
     134        377        341    380.000        380.000       8.333330E-02   8.333330E-02
     135        339        336    327.000        327.000       0.125000       0.125000    
     136        340        337    334.000        334.000       0.125000       0.125000    
     137        339        338    341.000        341.000       0.125000       0.125000    
     138        340        338    341.000        341.000       0.125000       0.125000    
     139        286        342    283.000        285.000       0.166667       0.166667    
     140        286        343    287.000        287.000       0.125000       0.125000    
     141        346        343    287.000        287.000       0.125000       0.125000    
     142        380        344    377.000        379.000       0.166667       0.166667    
     143        346        345    381.000        381.000       0.125000       0.125000    
     144        380        345    381.000        381.000       0.125000       0.125000    
     145        302        361    301.000        301.000       0.125000       0.125000    
     146        360        361    301.000        301.000       0.125000       0.125000    
     147        302        362    303.000        303.000       0.125000       0.125000    
     148        365        362    303.000        303.000       0.125000       0.125000    
     149        360        363    395.000        396.000       0.166667       0.166667    
     150        365        364    427.000        428.000       0.166667       0.166667    
     151        365        366    303.000        303.000       0.125000       0.125000    
     152        365        371    427.000        428.000       0.166667       0.166667    
     153        366        367    309.000        309.000       0.125000       0.125000    
     154        376        368    334.000        333.000       0.166667       0.166667    
     155        366        369    371.000        371.000       0.125000       0.125000    
     156        376        370    378.000        378.000       0.125000       0.125000    
     157        371        372    366.000        366.000       0.125000       0.125000    
     158        378        373    376.000        376.000       0.125000       0.125000    
     159        371        374    431.000        431.000       0.125000       0.125000    
     160        378        375    441.000        441.000       0.125000       0.125000    
     161        380        377    345.000        344.000       0.166667       0.166667    
     162        380        379    445.000        445.000       0.125000       0.125000    
     163        360        395    359.000        359.000       0.125000       0.125000    
     164        394        395    359.000        359.000       0.125000       0.125000    
     165        360        396    363.000        361.000       0.166667       0.166667    
     166        460        397    459.000        459.000       0.125000       0.125000    
     167        394        397    459.000        459.000       0.125000       0.125000    
     168        460        398    463.000        461.000       0.166667       0.166667    
     169        363        399    360.000        360.000       8.333330E-02   8.333330E-02
     170        396        399    360.000        360.000       8.333330E-02   8.333330E-02
     171        363        400    364.000        364.000       0.125000       0.125000    
     172        396        401    398.000        398.000       0.125000       0.125000    
     173        400        402    399.000        399.000       0.125000       0.125000    
     174        401        402    399.000        399.000       0.125000       0.125000    
     175        400        403    406.000        406.000       0.125000       0.125000    
     176        401        404    413.000        413.000       0.125000       0.125000    
     177        364        406    363.000        363.000       0.125000       0.125000    
     178        364        407    365.000        365.000       8.333330E-02   8.333330E-02
     179        427        407    365.000        365.000       8.333330E-02   8.333330E-02
     180        427        412    429.000        429.000       0.125000       0.125000    
     181        406        408    400.000        400.000       0.125000       0.125000    
     182        406        409    407.000        407.000       0.125000       0.125000    
     183        412        409    407.000        407.000       0.125000       0.125000    
     184        412        411    424.000        424.000       0.125000       0.125000    
     185        398        413    396.000        396.000       0.125000       0.125000    
     186        461        418    460.000        460.000       8.333330E-02   8.333330E-02
     187        398        418    460.000        460.000       8.333330E-02   8.333330E-02
     188        461        419    462.000        462.000       0.125000       0.125000    
     189        413        414    401.000        401.000       0.125000       0.125000    
     190        419        416    418.000        418.000       0.125000       0.125000    
     191        413        416    418.000        418.000       0.125000       0.125000    
     192        419        417    425.000        425.000       0.125000       0.125000    
     193        429        424    427.000        427.000       0.125000       0.125000    
     194        462        425    461.000        461.000       0.125000       0.125000    
     195        429        426    465.000        465.000       8.333330E-02   8.333330E-02
     196        462        426    465.000        465.000       8.333330E-02   8.333330E-02
     197        424        421    412.000        412.000       0.125000       0.125000    
     198        425        422    419.000        419.000       0.125000       0.125000    
     199        424        423    426.000        426.000       0.125000       0.125000    
     200        425        423    426.000        426.000       0.125000       0.125000    
     201        365        427    362.000        364.000       0.166667       0.166667    
     202        365        428    371.000        366.000       0.166667       0.166667    
     203        465        429    462.000        464.000       0.166667       0.166667    
     204        465        430    471.000        466.000       0.166667       0.166667    
     205        431        432    371.000        371.000       0.125000       0.125000    
     206        441        433    378.000        378.000       0.125000       0.125000    
     207        431        434    436.000        436.000       0.125000       0.125000    
     208        441        435    443.000        443.000       0.125000       0.125000    
     209        436        437    431.000        431.000       0.125000       0.125000    
     210        443        438    441.000        441.000       0.125000       0.125000    
     211        436        439    466.000        466.000       0.125000       0.125000    
     212        443        440    476.000        476.000       0.125000       0.125000    
     213        445        442    380.000        380.000       0.125000       0.125000    
     214        445        444    480.000        480.000       0.125000       0.125000    
     215        460        461    398.000        397.000       0.166667       0.166667    
     216        465        462    430.000        429.000       0.166667       0.166667    
     217        496        463    495.000        495.000       0.125000       0.125000    
     218        460        463    495.000        495.000       0.125000       0.125000    
     219        465        464    497.000        497.000       0.125000       0.125000    
     220        496        464    497.000        497.000       0.125000       0.125000    
     221        465        466    430.000        429.000       0.166667       0.166667    
     222        465        471    497.000        497.000       0.125000       0.125000    
     223        466        467    436.000        436.000       0.125000       0.125000    
     224        476        468    443.000        443.000       0.125000       0.125000    
     225        466        469    471.000        471.000       0.125000       0.125000    
     226        476        470    478.000        478.000       0.125000       0.125000    
     227        471        472    466.000        466.000       0.125000       0.125000    
     228        478        473    476.000        476.000       0.125000       0.125000    
     229        471        474    498.000        498.000       0.125000       0.125000    
     230        478        475    508.000        508.000       0.125000       0.125000    
     231        480        477    445.000        445.000       0.125000       0.125000    
     232        480        479    512.000        512.000       0.125000       0.125000    
     233        497        498    465.000        465.000       0.125000       0.125000    
     234        497        503    529.000        529.000       0.125000       0.125000    
     235        498        499    471.000        471.000       0.125000       0.125000    
     236        508        500    478.000        478.000       0.125000       0.125000    
     237        498        501    503.000        503.000       0.125000       0.125000    
     238        508        502    510.000        510.000       0.125000       0.125000    
     239        503        504    498.000        498.000       0.125000       0.125000    
     240        510        505    508.000        508.000       0.125000       0.125000    
     241        503        506    530.000        530.000       0.125000       0.125000    
     242        510        507    540.000        540.000       0.125000       0.125000    
     243        512        509    480.000        480.000       0.125000       0.125000    
     244        512        511    544.000        544.000       0.125000       0.125000    
     245        529        530    497.000        497.000       0.125000       0.125000    
     246        529        535    561.000        561.000       0.125000       0.125000    
     247        530        531    503.000        503.000       0.125000       0.125000    
     248        540        532    510.000        510.000       0.125000       0.125000    
     249        530        533    535.000        535.000       0.125000       0.125000    
     250        540        534    542.000        542.000       0.125000       0.125000    
     251        535        536    530.000        530.000       0.125000       0.125000    
     252        542        537    540.000        540.000       0.125000       0.125000    
     253        535        538    562.000        562.000       0.125000       0.125000    
     254        542        539    572.000        572.000       0.125000       0.125000    
     255        544        541    512.000        512.000       0.125000       0.125000    
     256        544        543    576.000        576.000       0.125000       0.125000    
     257        561        562    529.000        529.000       0.125000       0.125000    
     258        561        567    593.000        593.000       0.125000       0.125000    
     259        562        563    535.000        535.000       0.125000       0.125000    
     260        572        564    542.000        542.000       0.125000       0.125000    
     261        562        565    567.000        567.000       0.125000       0.125000    
     262        572        566    574.000        574.000       0.125000       0.125000    
     263        567        568    562.000        562.000       0.125000       0.125000    
     264        574        569    572.000        572.000       0.125000       0.125000    
     265        567        570    594.000        594.000       0.125000       0.125000    
     266        574        571    604.000        604.000       0.125000       0.125000    
     267        576        573    544.000        544.000       0.125000       0.125000    
     268        576        575    608.000        608.000       0.125000       0.125000    
     269        593        594    561.000        561.000       0.125000       0.125000    
     270        593        599    625.000        625.000       0.125000       0.125000    
     271        594        595    567.000        567.000       0.125000       0.125000    
     272        604        596    574.000        574.000       0.125000       0.125000    
     273        594        597    599.000        599.000       0.125000       0.125000    
     274        604        598    606.000        606.000       0.125000       0.125000    
     275        599        600    594.000        594.000       0.125000       0.125000    
     276        606        601    604.000        604.000       0.125000       0.125000    
     277        599        602    626.000        626.000       0.125000       0.125000    
     278        606        603    636.000        636.000       0.125000       0.125000    
     279        608        605    576.000        576.000       0.125000       0.125000    
     280        608        607    640.000        640.000       0.125000       0.125000    
     281        625        626    593.000        593.000       0.125000       0.125000    
     282        625        631    657.000        657.000       0.125000       0.125000    
     283        626        627    599.000        599.000       0.125000       0.125000    
     284        636        628    606.000        606.000       0.125000       0.125000    
     285        626        629    631.000        631.000       0.125000       0.125000    
     286        636        630    638.000        638.000       0.125000       0.125000    
     287        631        632    626.000        626.000       0.125000       0.125000    
     288        638        633    636.000        636.000       0.125000       0.125000    
     289        631        634    658.000        658.000       0.125000       0.125000    
     290        638        635    668.000        668.000       0.125000       0.125000    
     291        640        637    608.000        608.000       0.125000       0.125000    
     292        640        639    672.000        672.000       0.125000       0.125000    
     293        657        658    625.000        625.000       0.125000       0.125000    
     294        657        663    689.000        690.000       0.166667       0.166667    
     295        658        659    631.000        631.000       0.125000       0.125000    
     296        668        660    638.000        638.000       0.125000       0.125000    
     297        658        661    663.000        663.000       0.125000       0.125000    
     298        668        662    670.000        670.000       0.125000       0.125000    
     299        663        664    658.000        658.000       0.125000       0.125000    
     300        670        665    668.000        668.000       0.125000       0.125000    
     301        663        666    693.000        693.000       0.125000       0.125000    
     302        670        667    703.000        703.000       0.125000       0.125000    
     303        672        669    640.000        640.000       0.125000       0.125000    
     304        672        671    707.000        707.000       0.125000       0.125000    
     305        657        689    656.000        656.000       0.125000       0.125000    
     306        688        689    656.000        656.000       0.125000       0.125000    
     307        657        690    663.000        658.000       0.166667       0.166667    
     308        688        691    723.000        724.000       0.166667       0.166667    
     309        693        694    663.000        663.000       0.125000       0.125000    
     310        703        695    670.000        670.000       0.125000       0.125000    
     311        693        696    698.000        698.000       0.125000       0.125000    
     312        703        697    705.000        705.000       0.125000       0.125000    
     313        698        699    693.000        693.000       0.125000       0.125000    
     314        705        700    703.000        703.000       0.125000       0.125000    
     315        698        701    755.000        755.000       0.125000       0.125000    
     316        705        702    765.000        765.000       0.125000       0.125000    
     317        707        704    672.000        672.000       0.125000       0.125000    
     318        707        706    769.000        769.000       0.125000       0.125000    
     319        688        723    687.000        687.000       0.125000       0.125000    
     320        722        723    687.000        687.000       0.125000       0.125000    
     321        688        724    691.000        689.000       0.166667       0.166667    
     322        785        725    784.000        784.000       0.125000       0.125000    
     323        722        725    784.000        784.000       0.125000       0.125000    
     324        785        726    788.000        786.000       0.166667       0.166667    
     325        691        727    688.000        688.000       8.333330E-02   8.333330E-02
     326        724        727    688.000        688.000       8.333330E-02   8.333330E-02
     327        691        728    692.000        692.000       0.125000       0.125000    
     328        724        729    726.000        726.000       0.125000       0.125000    
     329        728        730    727.000        727.000       0.125000       0.125000    
     330        729        730    727.000        727.000       0.125000       0.125000    
     331        728        731    734.000        734.000       0.125000       0.125000    
     332        729        732    741.000        741.000       0.125000       0.125000    
     333        692        734    691.000        691.000       0.125000       0.125000    
     334        692        735    698.000        698.000       0.125000       0.125000    
     335        755        735    698.000        698.000       0.125000       0.125000    
     336        755        740    760.000        760.000       0.125000       0.125000    
     337        734        736    728.000        728.000       0.125000       0.125000    
     338        734        737    735.000        735.000       0.125000       0.125000    
     339        740        737    735.000        735.000       0.125000       0.125000    
     340        740        739    752.000        752.000       0.125000       0.125000    
     341        726        741    724.000        724.000       0.125000       0.125000    
     342        786        746    785.000        785.000       8.333330E-02   8.333330E-02
     343        726        746    785.000        785.000       8.333330E-02   8.333330E-02
     344        786        747    787.000        787.000       0.125000       0.125000    
     345        741        742    729.000        729.000       0.125000       0.125000    
     346        747        744    746.000        746.000       0.125000       0.125000    
     347        741        744    746.000        746.000       0.125000       0.125000    
     348        747        745    753.000        753.000       0.125000       0.125000    
     349        760        752    755.000        755.000       0.125000       0.125000    
     350        787        753    786.000        786.000       0.125000       0.125000    
     351        760        754    790.000        790.000       0.125000       0.125000    
     352        787        754    790.000        790.000       0.125000       0.125000    
     353        752        749    740.000        740.000       0.125000       0.125000    
     354        753        750    747.000        747.000       0.125000       0.125000    
     355        752        751    754.000        754.000       0.125000       0.125000    
     356        753        751    754.000        754.000       0.125000       0.125000    
     357        755        756    698.000        698.000       0.125000       0.125000    
     358        765        757    705.000        705.000       0.125000       0.125000    
     359        755        758    760.000        760.000       0.125000       0.125000    
     360        765        759    767.000        767.000       0.125000       0.125000    
     361        760        761    755.000        755.000       0.125000       0.125000    
     362        767        762    765.000        765.000       0.125000       0.125000    
     363        760        763    790.000        790.000       0.125000       0.125000    
     364        767        764    800.000        800.000       0.125000       0.125000    
     365        769        766    707.000        707.000       0.125000       0.125000    
     366        769        768    804.000        804.000       0.125000       0.125000    
     367        785        786    726.000        725.000       0.166667       0.166667    
     368        821        788    820.000        820.000       0.125000       0.125000    
     369        785        788    820.000        820.000       0.125000       0.125000    
     370        821        789    827.000        822.000       0.166667       0.166667    
     371        790        791    760.000        760.000       0.125000       0.125000    
     372        800        792    767.000        767.000       0.125000       0.125000    
     373        790        793    795.000        795.000       0.125000       0.125000    
     374        800        794    802.000        802.000       0.125000       0.125000    
     375        795        796    790.000        790.000       0.125000       0.125000    
     376        802        797    800.000        800.000       0.125000       0.125000    
     377        795        798    822.000        822.000       0.125000       0.125000    
     378        802        799    832.000        832.000       0.125000       0.125000    
     379        804        801    769.000        769.000       0.125000       0.125000    
     380        804        803    836.000        836.000       0.125000       0.125000    
     381        821        822    789.000        788.000       0.166667       0.166667    
     382        821        827    853.000        853.000       0.125000       0.125000    
     383        822        823    795.000        795.000       0.125000       0.125000    
     384        832        824    802.000        802.000       0.125000       0.125000    
     385        822        825    827.000        827.000       0.125000       0.125000    
     386        832        826    834.000        834.000       0.125000       0.125000    
     387        827        828    822.000        822.000       0.125000       0.125000    
     388        834        829    832.000        832.000       0.125000       0.125000    
     389        827        830    854.000        854.000       0.125000       0.125000    
     390        834        831    864.000        864.000       0.125000       0.125000    
     391        836        833    804.000        804.000       0.125000       0.125000    
     392        836        835    868.000        868.000       0.125000       0.125000    
     393        853        854    821.000        821.000       0.125000       0.125000    
     394        853        859    885.000        885.000       0.125000       0.125000    
     395        854        855    827.000        827.000       0.125000       0.125000    
     396        864        856    834.000        834.000       0.125000       0.125000    
     397        854        857    859.000        859.000       0.125000       0.125000    
     398        864        858    866.000        866.000       0.125000       0.125000    
     399        859        860    854.000        854.000       0.125000       0.125000    
     400        866        861    864.000        864.000       0.125000       0.125000    
     401        859        862    886.000        886.000       0.125000       0.125000    
     402        866        863    896.000        896.000       0.125000       0.125000    
     403        868        865    836.000        836.000       0.125000       0.125000    
     404        868        867    900.000        900.000       0.125000       0.125000    
     405        885        886    853.000        853.000       0.125000       0.125000    
     406        885        891    920.000        920.000       0.125000       0.125000    
     407        886        887    859.000        859.000       0.125000       0.125000    
     408        896        888    866.000        866.000       0.125000       0.125000    
     409        886        889    891.000        891.000       0.125000       0.125000    
     410        896        890    898.000        898.000       0.125000       0.125000    
     411        891        892    886.000        886.000       0.125000       0.125000    
     412        898        893    896.000        896.000       0.125000       0.125000    
     413        891        894    921.000        921.000       0.125000       0.125000    
     414        898        895    931.000        931.000       0.125000       0.125000    
     415        900        897    868.000        868.000       0.125000       0.125000    
     416        900        899    935.000        935.000       0.125000       0.125000    
     417        881        913    880.000        880.000       0.125000       0.125000    
     418        912        913    880.000        880.000       0.125000       0.125000    
     419        881        914    882.000        882.000       0.125000       0.125000    
     420        917        914    882.000        882.000       0.125000       0.125000    
     421        912        915    947.000        948.000       0.166667       0.166667    
     422        917        916    979.000        980.000       0.166667       0.166667    
     423        920        921    885.000        885.000       0.125000       0.125000    
     424        920        926    985.000        985.000       0.125000       0.125000    
     425        921        922    891.000        891.000       0.125000       0.125000    
     426        931        923    898.000        898.000       0.125000       0.125000    
     427        921        924    926.000        926.000       0.125000       0.125000    
     428        931        925    933.000        933.000       0.125000       0.125000    
     429        926        927    921.000        921.000       0.125000       0.125000    
     430        933        928    931.000        931.000       0.125000       0.125000    
     431        926        929    986.000        986.000       0.125000       0.125000    
     432        933        930    996.000        996.000       0.125000       0.125000    
     433        935        932    900.000        900.000       0.125000       0.125000    
     434        935        934    1000.00        1000.00       0.125000       0.125000    
     435        912        947    911.000        911.000       0.125000       0.125000    
     436        946        947    911.000        911.000       0.125000       0.125000    
     437        912        948    915.000        913.000       0.166667       0.166667    
     438       1012        949    1011.00        1011.00       0.125000       0.125000    
     439        946        949    1011.00        1011.00       0.125000       0.125000    
     440       1012        950    1015.00        1013.00       0.166667       0.166667    
     441        915        951    912.000        912.000       8.333330E-02   8.333330E-02
     442        948        951    912.000        912.000       8.333330E-02   8.333330E-02
     443        915        952    916.000        916.000       0.125000       0.125000    
     444        948        953    950.000        950.000       0.125000       0.125000    
     445        952        954    951.000        951.000       0.125000       0.125000    
     446        953        954    951.000        951.000       0.125000       0.125000    
     447        952        955    958.000        958.000       0.125000       0.125000    
     448        953        956    965.000        965.000       0.125000       0.125000    
     449        916        958    915.000        915.000       0.125000       0.125000    
     450        916        959    917.000        917.000       8.333330E-02   8.333330E-02
     451        979        959    917.000        917.000       8.333330E-02   8.333330E-02
     452        979        964    981.000        981.000       0.125000       0.125000    
     453        958        960    952.000        952.000       0.125000       0.125000    
     454        958        961    959.000        959.000       0.125000       0.125000    
     455        964        961    959.000        959.000       0.125000       0.125000    
     456        964        963    976.000        976.000       0.125000       0.125000    
     457        950        965    948.000        948.000       0.125000       0.125000    
     458       1013        970    1012.00        1012.00       8.333330E-02   8.333330E-02
     459        950        970    1012.00        1012.00       8.333330E-02   8.333330E-02
     460       1013        971    1014.00        1014.00       0.125000       0.125000    
     461        965        966    953.000        953.000       0.125000       0.125000    
     462        971        968    970.000        970.000       0.125000       0.125000    
     463        965        968    970.000        970.000       0.125000       0.125000    
     464        971        969    977.000        977.000       0.125000       0.125000    
     465        981        976    979.000        979.000       0.125000       0.125000    
     466       1014        977    1013.00        1013.00       0.125000       0.125000    
     467        981        978    1017.00        1017.00       8.333330E-02   8.333330E-02
     468       1014        978    1017.00        1017.00       8.333330E-02   8.333330E-02
     469        976        973    964.000        964.000       0.125000       0.125000    
     470        977        974    971.000        971.000       0.125000       0.125000    
     471        976        975    978.000        978.000       0.125000       0.125000    
     472        977        975    978.000        978.000       0.125000       0.125000    
     473        917        979    914.000        916.000       0.166667       0.166667    
     474        917        980    918.000        918.000       0.125000       0.125000    
     475        983        980    918.000        918.000       0.125000       0.125000    
     476       1017        981    1014.00        1016.00       0.166667       0.166667    
     477        983        982    1018.00        1018.00       0.125000       0.125000    
     478       1017        982    1018.00        1018.00       0.125000       0.125000    
     479        985        986    920.000        920.000       0.125000       0.125000    
     480        985        991    1020.00        1020.00       0.125000       0.125000    
     481        986        987    926.000        926.000       0.125000       0.125000    
     482        996        988    933.000        933.000       0.125000       0.125000    
     483        986        989    991.000        991.000       0.125000       0.125000    
     484        996        990    998.000        998.000       0.125000       0.125000    
     485        991        992    986.000        986.000       0.125000       0.125000    
     486        998        993    996.000        996.000       0.125000       0.125000    
     487        991        994    1021.00        1021.00       0.125000       0.125000    
     488        998        995    1031.00        1031.00       0.125000       0.125000    
     489       1000        997    935.000        935.000       0.125000       0.125000    
     490       1000        999    1035.00        1035.00       0.125000       0.125000    
     491       1012       1013    950.000        949.000       0.166667       0.166667    
     492       1017       1014    982.000        981.000       0.166667       0.166667    
     493       1051       1015    1050.00        1050.00       0.125000       0.125000    
     494       1012       1015    1050.00        1050.00       0.125000       0.125000    
     495       1017       1016    1052.00        1052.00       0.125000       0.125000    
     496       1051       1016    1052.00        1052.00       0.125000       0.125000    
     497       1020       1021    985.000        985.000       0.125000       0.125000    
     498       1020       1026    1055.00        1055.00       0.125000       0.125000    
     499       1021       1022    991.000        991.000       0.125000       0.125000    
     500       1031       1023    998.000        998.000       0.125000       0.125000    
     501       1021       1024    1026.00        1026.00       0.125000       0.125000    
     502       1031       1025    1033.00        1033.00       0.125000       0.125000    
     503       1026       1027    1021.00        1021.00       0.125000       0.125000    
     504       1033       1028    1031.00        1031.00       0.125000       0.125000    
     505       1026       1029    1056.00        1056.00       0.125000       0.125000    
     506       1033       1030    1066.00        1066.00       0.125000       0.125000    
     507       1035       1032    1000.00        1000.00       0.125000       0.125000    
     508       1035       1034    1070.00        1070.00       0.125000       0.125000    
     509       1009       1044    1008.00        1008.00       0.125000       0.125000    
     510       1043       1044    1008.00        1008.00       0.125000       0.125000    
     511       1009       1045    1010.00        1010.00       0.125000       0.125000    
     512       1048       1045    1010.00        1010.00       0.125000       0.125000    
     513       1043       1046    1078.00        1079.00       0.166667       0.166667    
     514       1048       1047    1110.00        1111.00       0.166667       0.166667    
     515       1055       1056    1020.00        1020.00       0.125000       0.125000    
     516       1055       1061    1120.00        1120.00       0.125000       0.125000    
     517       1056       1057    1026.00        1026.00       0.125000       0.125000    
     518       1066       1058    1033.00        1033.00       0.125000       0.125000    
     519       1056       1059    1061.00        1061.00       0.125000       0.125000    
     520       1066       1060    1068.00        1068.00       0.125000       0.125000    
     521       1061       1062    1056.00        1056.00       0.125000       0.125000    
     522       1068       1063    1066.00        1066.00       0.125000       0.125000    
     523       1061       1064    1121.00        1121.00       0.125000       0.125000    
     524       1068       1065    1131.00        1131.00       0.125000       0.125000    
     525       1070       1067    1035.00        1035.00       0.125000       0.125000    
     526       1070       1069    1135.00        1135.00       0.125000       0.125000    
     527       1043       1078    1042.00        1042.00       0.125000       0.125000    
     528       1077       1078    1042.00        1042.00       0.125000       0.125000    
     529       1043       1079    1046.00        1044.00       0.166667       0.166667    
     530       1143       1080    1142.00        1142.00       0.125000       0.125000    
     531       1077       1080    1142.00        1142.00       0.125000       0.125000    
     532       1143       1081    1146.00        1144.00       0.166667       0.166667    
     533       1046       1082    1043.00        1043.00       8.333330E-02   8.333330E-02
     534       1079       1082    1043.00        1043.00       8.333330E-02   8.333330E-02
     535       1046       1083    1047.00        1047.00       0.125000       0.125000    
     536       1079       1084    1081.00        1081.00       0.125000       0.125000    
     537       1083       1085    1082.00        1082.00       0.125000       0.125000    
     538       1084       1085    1082.00        1082.00       0.125000       0.125000    
     539       1083       1086    1089.00        1089.00       0.125000       0.125000    
     540       1084       1087    1096.00        1096.00       0.125000       0.125000    
     541       1047       1089    1046.00        1046.00       0.125000       0.125000    
     542       1047       1090    1048.00        1048.00       8.333330E-02   8.333330E-02
     543       1110       1090    1048.00        1048.00       8.333330E-02   8.333330E-02
     544       1110       1095    1112.00        1112.00       0.125000       0.125000    
     545       1089       1091    1083.00        1083.00       0.125000       0.125000    
     546       1089       1092    1090.00        1090.00       0.125000       0.125000    
     547       1095       1092    1090.00        1090.00       0.125000       0.125000    
     548       1095       1094    1107.00        1107.00       0.125000       0.125000    
     549       1081       1096    1079.00        1079.00       0.125000       0.125000    
     550       1144       1101    1143.00        1143.00       8.333330E-02   8.333330E-02
     551       1081       1101    1143.00        1143.00       8.333330E-02   8.333330E-02
     552       1144       1102    1145.00        1145.00       0.125000       0.125000    
     553       1096       1097    1084.00        1084.00       0.125000       0.125000    
     554       1102       1099    1101.00        1101.00       0.125000       0.125000    
     555       1096       1099    1101.00        1101.00       0.125000       0.125000    
     556       1102       1100    1108.00        1108.00       0.125000       0.125000    
     557       1112       1107    1110.00        1110.00       0.125000       0.125000    
     558       1145       1108    1144.00        1144.00       0.125000       0.125000    
     559       1112       1109    1148.00        1148.00       8.333330E-02   8.333330E-02
     560       1145       1109    1148.00        1148.00       8.333330E-02   8.333330E-02
     561       1107       1104    1095.00        1095.00       0.125000       0.125000    
     562       1108       1105    1102.00        1102.00       0.125000       0.125000    
     563       1107       1106    1109.00        1109.00       0.125000       0.125000    
     564       1108       1106    1109.00        1109.00       0.125000       0.125000    
     565       1048       1110    1045.00        1047.00       0.166667       0.166667    
     566       1048       1111    1049.00        1049.00       0.125000       0.125000    
     567       1114       1111    1049.00        1049.00       0.125000       0.125000    
     568       1148       1112    1145.00        1147.00       0.166667       0.166667    
     569       1114       1113    1149.00        1149.00       0.125000       0.125000    
     570       1148       1113    1149.00        1149.00       0.125000       0.125000    
     571       1120       1121    1055.00        1055.00       0.125000       0.125000    
     572       1120       1126    1155.00        1155.00       0.125000       0.125000    
     573       1121       1122    1061.00        1061.00       0.125000       0.125000    
     574       1131       1123    1068.00        1068.00       0.125000       0.125000    
     575       1121       1124    1126.00        1126.00       0.125000       0.125000    
     576       1131       1125    1133.00        1133.00       0.125000       0.125000    
     577       1126       1127    1121.00        1121.00       0.125000       0.125000    
     578       1133       1128    1131.00        1131.00       0.125000       0.125000    
     579       1126       1129    1156.00        1156.00       0.125000       0.125000    
     580       1133       1130    1166.00        1166.00       0.125000       0.125000    
     581       1135       1132    1070.00        1070.00       0.125000       0.125000    
     582       1135       1134    1170.00        1170.00       0.125000       0.125000    
     583       1143       1144    1081.00        1080.00       0.166667       0.166667    
     584       1148       1145    1113.00        1112.00       0.166667       0.166667    
     585       1179       1146    1178.00        1178.00       0.125000       0.125000    
     586       1143       1146    1178.00        1178.00       0.125000       0.125000    
     587       1148       1147    1180.00        1180.00       0.125000       0.125000    
     588       1179       1147    1180.00        1180.00       0.125000       0.125000    
     589       1155       1156    1120.00        1120.00       0.125000       0.125000    
     590       1155       1161    1187.00        1187.00       0.125000       0.125000    
     591       1156       1157    1126.00        1126.00       0.125000       0.125000    
     592       1166       1158    1133.00        1133.00       0.125000       0.125000    
     593       1156       1159    1161.00        1161.00       0.125000       0.125000    
     594       1166       1160    1168.00        1168.00       0.125000       0.125000    
     595       1161       1162    1156.00        1156.00       0.125000       0.125000    
     596       1168       1163    1166.00        1166.00       0.125000       0.125000    
     597       1161       1164    1188.00        1188.00       0.125000       0.125000    
     598       1168       1165    1198.00        1198.00       0.125000       0.125000    
     599       1170       1167    1135.00        1135.00       0.125000       0.125000    
     600       1170       1169    1202.00        1202.00       0.125000       0.125000    
     601       1187       1188    1155.00        1155.00       0.125000       0.125000    
     602       1187       1193    1219.00        1219.00       0.125000       0.125000    
     603       1188       1189    1161.00        1161.00       0.125000       0.125000    
     604       1198       1190    1168.00        1168.00       0.125000       0.125000    
     605       1188       1191    1193.00        1193.00       0.125000       0.125000    
     606       1198       1192    1200.00        1200.00       0.125000       0.125000    
     607       1193       1194    1188.00        1188.00       0.125000       0.125000    
     608       1200       1195    1198.00        1198.00       0.125000       0.125000    
     609       1193       1196    1220.00        1220.00       0.125000       0.125000    
     610       1200       1197    1230.00        1230.00       0.125000       0.125000    
     611       1202       1199    1170.00        1170.00       0.125000       0.125000    
     612       1202       1201    1234.00        1234.00       0.125000       0.125000    
     613       1219       1220    1187.00        1187.00       0.125000       0.125000    
     614       1219       1225    1254.00        1254.00       0.125000       0.125000    
     615       1220       1221    1193.00        1193.00       0.125000       0.125000    
     616       1230       1222    1200.00        1200.00       0.125000       0.125000    
     617       1220       1223    1225.00        1225.00       0.125000       0.125000    
     618       1230       1224    1232.00        1232.00       0.125000       0.125000    
     619       1225       1226    1220.00        1220.00       0.125000       0.125000    
     620       1232       1227    1230.00        1230.00       0.125000       0.125000    
     621       1225       1228    1255.00        1255.00       0.125000       0.125000    
     622       1232       1229    1265.00        1265.00       0.125000       0.125000    
     623       1234       1231    1202.00        1202.00       0.125000       0.125000    
     624       1234       1233    1269.00        1269.00       0.125000       0.125000    
     625       1217       1249    1216.00        1216.00       0.125000       0.125000    
     626       1248       1249    1216.00        1216.00       0.125000       0.125000    
     627       1217       1250    1218.00        1218.00       0.125000       0.125000    
     628       1253       1250    1218.00        1218.00       0.125000       0.125000    
     629       1248       1251    1283.00        1284.00       0.166667       0.166667    
     630       1253       1252    1315.00        1316.00       0.166667       0.166667    
     631       1254       1255    1219.00        1219.00       0.125000       0.125000    
     632       1254       1260    1319.00        1319.00       0.125000       0.125000    
     633       1255       1256    1225.00        1225.00       0.125000       0.125000    
     634       1265       1257    1232.00        1232.00       0.125000       0.125000    
     635       1255       1258    1260.00        1260.00       0.125000       0.125000    
     636       1265       1259    1267.00        1267.00       0.125000       0.125000    
     637       1260       1261    1255.00        1255.00       0.125000       0.125000    
     638       1267       1262    1265.00        1265.00       0.125000       0.125000    
     639       1260       1263    1320.00        1320.00       0.125000       0.125000    
     640       1267       1264    1330.00        1330.00       0.125000       0.125000    
     641       1269       1266    1234.00        1234.00       0.125000       0.125000    
     642       1269       1268    1334.00        1334.00       0.125000       0.125000    
     643       1248       1283    1247.00        1247.00       0.125000       0.125000    
     644       1282       1283    1247.00        1247.00       0.125000       0.125000    
     645       1248       1284    1251.00        1249.00       0.166667       0.166667    
     646       1348       1285    1347.00        1347.00       0.125000       0.125000    
     647       1282       1285    1347.00        1347.00       0.125000       0.125000    
     648       1348       1286    1351.00        1349.00       0.166667       0.166667    
     649       1251       1287    1248.00        1248.00       8.333330E-02   8.333330E-02
     650       1284       1287    1248.00        1248.00       8.333330E-02   8.333330E-02
     651       1251       1288    1252.00        1252.00       0.125000       0.125000    
     652       1284       1289    1286.00        1286.00       0.125000       0.125000    
     653       1288       1290    1287.00        1287.00       0.125000       0.125000    
     654       1289       1290    1287.00        1287.00       0.125000       0.125000    
     655       1288       1291    1294.00        1294.00       0.125000       0.125000    
     656       1289       1292    1301.00        1301.00       0.125000       0.125000    
     657       1252       1294    1251.00        1251.00       0.125000       0.125000    
     658       1252       1295    1253.00        1253.00       8.333330E-02   8.333330E-02
     659       1315       1295    1253.00        1253.00       8.333330E-02   8.333330E-02
     660       1315       1300    1317.00        1317.00       0.125000       0.125000    
     661       1294       1296    1288.00        1288.00       0.125000       0.125000    
     662       1294       1297    1295.00        1295.00       0.125000       0.125000    
     663       1300       1297    1295.00        1295.00       0.125000       0.125000    
     664       1300       1299    1312.00        1312.00       0.125000       0.125000    
     665       1286       1301    1284.00        1284.00       0.125000       0.125000    
     666       1349       1306    1348.00        1348.00       8.333330E-02   8.333330E-02
     667       1286       1306    1348.00        1348.00       8.333330E-02   8.333330E-02
     668       1349       1307    1350.00        1350.00       0.125000       0.125000    
     669       1301       1302    1289.00        1289.00       0.125000       0.125000    
     670       1307       1304    1306.00        1306.00       0.125000       0.125000    
     671       1301       1304    1306.00        1306.00       0.125000       0.125000    
     672       1307       1305    1313.00        1313.00       0.125000       0.125000    
     673       1317       1312    1315.00        1315.00       0.125000       0.125000    
     674       1350       1313    1349.00        1349.00       0.125000       0.125000    
     675       1317       1314    1353.00        1353.00       8.333330E-02   8.333330E-02
     676       1350       1314    1353.00        1353.00       8.333330E-02   8.333330E-02
     677       1312       1309    1300.00        1300.00       0.125000       0.125000    
     678       1313       1310    1307.00        1307.00       0.125000       0.125000    
     679       1312       1311    1314.00        1314.00       0.125000       0.125000    
     680       1313       1311    1314.00        1314.00       0.125000       0.125000    
     681       1253       1315    1250.00        1252.00       0.166667       0.166667    
     682       1253       1316    1254.00        1254.00       0.125000       0.125000    
     683       1319       1316    1254.00        1254.00       0.125000       0.125000    
     684       1353       1317    1350.00        1352.00       0.166667       0.166667    
     685       1319       1318    1354.00        1354.00       0.125000       0.125000    
     686       1353       1318    1354.00        1354.00       0.125000       0.125000    
     687       1319       1320    1254.00        1254.00       0.125000       0.125000    
     688       1319       1325    1354.00        1354.00       0.125000       0.125000    
     689       1320       1321    1260.00        1260.00       0.125000       0.125000    
     690       1330       1322    1267.00        1267.00       0.125000       0.125000    
     691       1320       1323    1325.00        1325.00       0.125000       0.125000    
     692       1330       1324    1332.00        1332.00       0.125000       0.125000    
     693       1325       1326    1320.00        1320.00       0.125000       0.125000    
     694       1332       1327    1330.00        1330.00       0.125000       0.125000    
     695       1325       1328    1355.00        1355.00       0.125000       0.125000    
     696       1332       1329    1365.00        1365.00       0.125000       0.125000    
     697       1334       1331    1269.00        1269.00       0.125000       0.125000    
     698       1334       1333    1369.00        1369.00       0.125000       0.125000    
     699       1348       1349    1286.00        1285.00       0.166667       0.166667    
     700       1353       1350    1318.00        1317.00       0.166667       0.166667    
     701       1384       1351    1383.00        1383.00       0.125000       0.125000    
     702       1348       1351    1383.00        1383.00       0.125000       0.125000    
     703       1353       1352    1385.00        1385.00       0.125000       0.125000    
     704       1384       1352    1385.00        1385.00       0.125000       0.125000    
     705       1354       1355    1319.00        1319.00       0.125000       0.125000    
     706       1354       1360    1386.00        1386.00       0.125000       0.125000    
     707       1355       1356    1325.00        1325.00       0.125000       0.125000    
     708       1365       1357    1332.00        1332.00       0.125000       0.125000    
     709       1355       1358    1360.00        1360.00       0.125000       0.125000    
     710       1365       1359    1367.00        1367.00       0.125000       0.125000    
     711       1360       1361    1355.00        1355.00       0.125000       0.125000    
     712       1367       1362    1365.00        1365.00       0.125000       0.125000    
     713       1360       1363    1387.00        1387.00       0.125000       0.125000    
     714       1367       1364    1397.00        1397.00       0.125000       0.125000    
     715       1369       1366    1334.00        1334.00       0.125000       0.125000    
     716       1369       1368    1401.00        1401.00       0.125000       0.125000    
     717       1386       1387    1354.00        1354.00       0.125000       0.125000    
     718       1386       1392    1418.00        1418.00       0.125000       0.125000    
     719       1387       1388    1360.00        1360.00       0.125000       0.125000    
     720       1397       1389    1367.00        1367.00       0.125000       0.125000    
     721       1387       1390    1392.00        1392.00       0.125000       0.125000    
     722       1397       1391    1399.00        1399.00       0.125000       0.125000    
     723       1392       1393    1387.00        1387.00       0.125000       0.125000    
     724       1399       1394    1397.00        1397.00       0.125000       0.125000    
     725       1392       1395    1419.00        1419.00       0.125000       0.125000    
     726       1399       1396    1429.00        1429.00       0.125000       0.125000    
     727       1401       1398    1369.00        1369.00       0.125000       0.125000    
     728       1401       1400    1433.00        1433.00       0.125000       0.125000    
     729       1418       1419    1386.00        1386.00       0.125000       0.125000    
     730       1418       1424    1450.00        1450.00       0.125000       0.125000    
     731       1419       1420    1392.00        1392.00       0.125000       0.125000    
     732       1429       1421    1399.00        1399.00       0.125000       0.125000    
     733       1419       1422    1424.00        1424.00       0.125000       0.125000    
     734       1429       1423    1431.00        1431.00       0.125000       0.125000    
     735       1424       1425    1419.00        1419.00       0.125000       0.125000    
     736       1431       1426    1429.00        1429.00       0.125000       0.125000    
     737       1424       1427    1451.00        1451.00       0.125000       0.125000    
     738       1431       1428    1461.00        1461.00       0.125000       0.125000    
     739       1433       1430    1401.00        1401.00       0.125000       0.125000    
     740       1433       1432    1465.00        1465.00       0.125000       0.125000    
     741       1450       1451    1418.00        1418.00       0.125000       0.125000    
     742       1450       1456    1482.00        1482.00       0.125000       0.125000    
     743       1451       1452    1424.00        1424.00       0.125000       0.125000    
     744       1461       1453    1431.00        1431.00       0.125000       0.125000    
     745       1451       1454    1456.00        1456.00       0.125000       0.125000    
     746       1461       1455    1463.00        1463.00       0.125000       0.125000    
     747       1456       1457    1451.00        1451.00       0.125000       0.125000    
     748       1463       1458    1461.00        1461.00       0.125000       0.125000    
     749       1456       1459    1483.00        1483.00       0.125000       0.125000    
     750       1463       1460    1493.00        1493.00       0.125000       0.125000    
     751       1465       1462    1433.00        1433.00       0.125000       0.125000    
     752       1465       1464    1497.00        1497.00       0.125000       0.125000    
     753       1482       1483    1450.00        1450.00       0.125000       0.125000    
     754       1483       1484    1456.00        1456.00       0.125000       0.125000    
     755       1493       1485    1463.00        1463.00       0.125000       0.125000    
     756       1483       1486    1488.00        1488.00       0.125000       0.125000    
     757       1493       1487    1495.00        1495.00       0.125000       0.125000    
     758       1488       1489    1483.00        1483.00       0.125000       0.125000    
     759       1495       1490    1493.00        1493.00       0.125000       0.125000    
     760       1497       1494    1465.00        1465.00       0.125000       0.125000    
     761       1514       1520    1546.00        1546.00       0.125000       0.125000    
     762       1515       1518    1520.00        1520.00       0.125000       0.125000    
     763       1525       1519    1527.00        1527.00       0.125000       0.125000    
     764       1520       1521    1515.00        1515.00       0.125000       0.125000    
     765       1527       1522    1525.00        1525.00       0.125000       0.125000    
     766       1520       1523    1547.00        1547.00       0.125000       0.125000    
     767       1527       1524    1557.00        1557.00       0.125000       0.125000    
     768       1529       1528    1561.00        1561.00       0.125000       0.125000    
     769       1546       1547    1514.00        1514.00       0.125000       0.125000    
     770       1546       1552    1578.00        1578.00       0.125000       0.125000    
     771       1547       1548    1520.00        1520.00       0.125000       0.125000    
     772       1557       1549    1527.00        1527.00       0.125000       0.125000    
     773       1547       1550    1552.00        1552.00       0.125000       0.125000    
     774       1557       1551    1559.00        1559.00       0.125000       0.125000    
     775       1552       1553    1547.00        1547.00       0.125000       0.125000    
     776       1559       1554    1557.00        1557.00       0.125000       0.125000    
     777       1552       1555    1579.00        1579.00       0.125000       0.125000    
     778       1559       1556    1589.00        1589.00       0.125000       0.125000    
     779       1561       1558    1529.00        1529.00       0.125000       0.125000    
     780       1561       1560    1593.00        1593.00       0.125000       0.125000    
     781       1578       1579    1546.00        1546.00       0.125000       0.125000    
     782       1578       1584    1610.00        1610.00       0.125000       0.125000    
     783       1579       1580    1552.00        1552.00       0.125000       0.125000    
     784       1589       1581    1559.00        1559.00       0.125000       0.125000    
     785       1579       1582    1584.00        1584.00       0.125000       0.125000    
     786       1589       1583    1591.00        1591.00       0.125000       0.125000    
     787       1584       1585    1579.00        1579.00       0.125000       0.125000    
     788       1591       1586    1589.00        1589.00       0.125000       0.125000    
     789       1584       1587    1611.00        1611.00       0.125000       0.125000    
     790       1591       1588    1621.00        1621.00       0.125000       0.125000    
     791       1593       1590    1561.00        1561.00       0.125000       0.125000    
     792       1593       1592    1625.00        1625.00       0.125000       0.125000    
     793       1610       1611    1578.00        1578.00       0.125000       0.125000    
     794       1610       1616    1642.00        1642.00       0.125000       0.125000    
     795       1611       1612    1584.00        1584.00       0.125000       0.125000    
     796       1621       1613    1591.00        1591.00       0.125000       0.125000    
     797       1611       1614    1616.00        1616.00       0.125000       0.125000    
     798       1621       1615    1623.00        1623.00       0.125000       0.125000    
     799       1616       1617    1611.00        1611.00       0.125000       0.125000    
     800       1623       1618    1621.00        1621.00       0.125000       0.125000    
     801       1616       1619    1643.00        1643.00       0.125000       0.125000    
     802       1623       1620    1653.00        1653.00       0.125000       0.125000    
     803       1625       1622    1593.00        1593.00       0.125000       0.125000    
     804       1625       1624    1657.00        1657.00       0.125000       0.125000    
     805       1642       1643    1610.00        1610.00       0.125000       0.125000    
     806       1642       1648    1674.00        1674.00       0.125000       0.125000    
     807       1643       1644    1616.00        1616.00       0.125000       0.125000    
     808       1653       1645    1623.00        1623.00       0.125000       0.125000    
     809       1643       1646    1648.00        1648.00       0.125000       0.125000    
     810       1653       1647    1655.00        1655.00       0.125000       0.125000    
     811       1648       1649    1643.00        1643.00       0.125000       0.125000    
     812       1655       1650    1653.00        1653.00       0.125000       0.125000    
     813       1648       1651    1675.00        1675.00       0.125000       0.125000    
     814       1655       1652    1685.00        1685.00       0.125000       0.125000    
     815       1657       1654    1625.00        1625.00       0.125000       0.125000    
     816       1657       1656    1689.00        1689.00       0.125000       0.125000    
     817       1674       1675    1642.00        1642.00       0.125000       0.125000    
     818       1674       1680    1706.00        1706.00       0.125000       0.125000    
     819       1675       1676    1648.00        1648.00       0.125000       0.125000    
     820       1685       1677    1655.00        1655.00       0.125000       0.125000    
     821       1675       1678    1680.00        1680.00       0.125000       0.125000    
     822       1685       1679    1687.00        1687.00       0.125000       0.125000    
     823       1680       1681    1675.00        1675.00       0.125000       0.125000    
     824       1687       1682    1685.00        1685.00       0.125000       0.125000    
     825       1680       1683    1707.00        1707.00       0.125000       0.125000    
     826       1687       1684    1717.00        1717.00       0.125000       0.125000    
     827       1689       1686    1657.00        1657.00       0.125000       0.125000    
     828       1689       1688    1721.00        1721.00       0.125000       0.125000    
     829       1706       1707    1674.00        1674.00       0.125000       0.125000    
     830       1706       1712    1738.00        1738.00       0.125000       0.125000    
     831       1707       1708    1680.00        1680.00       0.125000       0.125000    
     832       1717       1709    1687.00        1687.00       0.125000       0.125000    
     833       1707       1710    1712.00        1712.00       0.125000       0.125000    
     834       1717       1711    1719.00        1719.00       0.125000       0.125000    
     835       1712       1713    1707.00        1707.00       0.125000       0.125000    
     836       1719       1714    1717.00        1717.00       0.125000       0.125000    
     837       1712       1715    1739.00        1739.00       0.125000       0.125000    
     838       1719       1716    1749.00        1749.00       0.125000       0.125000    
     839       1721       1718    1689.00        1689.00       0.125000       0.125000    
     840       1721       1720    1753.00        1753.00       0.125000       0.125000    
     841       1738       1739    1706.00        1706.00       0.125000       0.125000    
[...]
    100  6.250E+01 0.000E+00 0.000E+00 0.000E+00 0.000E+00    1      101        0        0
    101  6.250E+01 0.000E+00 0.000E+00 0.000E+00 0.000E+00    1      102        0        0
    102  6.250E+01 0.000E+00 0.000E+00 0.000E+00 0.000E+00    1      103        0        0
    103  6.250E+01 0.000E+00 0.000E+00 0.000E+00 0.000E+00    1      104        0        0
    104  6.250E+01 0.000E+00 0.000E+00 0.000E+00 0.000E+00    1      105        0        0
    105  6.250E+01 0.000E+00 0.000E+00 0.000E+00 0.000E+00    1      106        0        0
    106  6.250E+01 0.000E+00 0.000E+00 0.000E+00 0.000E+00    1      107        0        0
    107  6.250E+01 0.000E+00 0.000E+00 0.000E+00 0.000E+00    1      108        0        0
    108  6.250E+01 0.000E+00 0.000E+00 0.000E+00 0.000E+00    1      109        0        0
    109  6.250E+01 0.000E+00 0.000E+00 0.000E+00 0.000E+00    1      110        0        0
    110  6.250E+01 0.000E+00 0.000E+00 0.000E+00 0.000E+00    1      111        0        0
    111  6.250E+01 0.000E+00 0.000E+00 0.000E+00 0.000E+00    1      112        0        0
    112  6.250E+01 0.000E+00 0.000E+00 0.000E+00 0.000E+00    1      113        0        0
    113  6.250E+01 0.000E+00 0.000E+00 0.000E+00 0.000E+00    1      114        0        0
    114  6.250E+01 0.000E+00 0.000E+00 0.000E+00 0.000E+00    1      115        0        0
    115  6.250E+01 0.000E+00 0.000E+00 0.000E+00 0.000E+00    1      116        0        0
    116  6.250E+01 0.000E+00 0.000E+00 0.000E+00 0.000E+00    1      117        0        0
    117  6.250E+01 0.000E+00 0.000E+00 0.000E+00 0.000E+00    1      118        0        0
    118  6.250E+01 0.000E+00 0.000E+00 0.000E+00 0.000E+00    1      119        0        0
    119  6.250E+01 0.000E+00 0.000E+00 0.000E+00 0.000E+00    1      120        0        0
    120  6.250E+01 0.000E+00 0.000E+00 0.000E+00 0.000E+00    1      121        0        0
    121  6.250E+01 0.000E+00 0.000E+00 0.000E+00 0.000E+00    1      122        0        0
    122  6.250E+01 0.000E+00 0.000E+00 0.000E+00 0.000E+00    1      123        0        0
    123  6.250E+01 0.000E+00 0.000E+00 0.000E+00 0.000E+00    1      124        0        0
    124  6.250E+01 0.000E+00 0.000E+00 0.000E+00 0.000E+00    1      125        0        0
    125  6.250E+01 0.000E+00 0.000E+00 0.000E+00 0.000E+00    1      126        0        0
    126  6.250E+01 0.000E+00 0.000E+00 0.000E+00 0.000E+00    1      127        0        0
    127  6.250E+01 0.000E+00 0.000E+00 0.000E+00 0.000E+00    1      128        0        0
    128  6.250E+01 0.000E+00 0.000E+00 0.000E+00 0.000E+00    1      129        0        0
    129  6.250E+01 0.000E+00 0.000E+00 0.000E+00 0.000E+00    1      130        0        0
    130  6.250E+01 0.000E+00 0.000E+00 0.000E+00 0.000E+00    1      131        0        0
    131  6.250E+01 0.000E+00 0.000E+00 0.000E+00 0.000E+00    1      132        0        0
    132  6.250E+01 0.000E+00 0.000E+00 0.000E+00 0.000E+00    1      133        0        0
    133  6.250E+01 0.000E+00 0.000E+00 0.000E+00 0.000E+00    1      134        0        0
    134  6.250E+01 0.000E+00 0.000E+00 0.000E+00 0.000E+00    1      135        0        0
    135  6.250E+01 0.000E+00 0.000E+00 0.000E+00 0.000E+00    1      136        0        0
    136  6.250E+01 0.000E+00 0.000E+00 0.000E+00 0.000E+00    1      137        0        0
    137  6.250E+01 0.000E+00 0.000E+00 0.000E+00 0.000E+00    1      138        0        0
    138  6.250E+01 0.000E+00 0.000E+00 0.000E+00 0.000E+00    1      139        0        0
    139  6.250E+01 0.000E+00 0.000E+00 0.000E+00 0.000E+00    1      140        0        0
    140  6.250E+01 0.000E+00 0.000E+00 0.000E+00 0.000E+00    1      141        0        0
    141  6.250E+01 0.000E+00 0.000E+00 0.000E+00 0.000E+00    1      142        0        0
    142  6.250E+01 0.000E+00 0.000E+00 0.000E+00 0.000E+00    1      143        0        0
    143  6.250E+01 0.000E+00 0.000E+00 0.000E+00 0.000E+00    1      144        0        0
    144  6.250E+01 0.000E+00 0.000E+00 0.000E+00 0.000E+00    1      145        0        0
    145  6.250E+01 0.000E+00 0.000E+00 0.000E+00 0.000E+00    1      146        0        0
    146  6.250E+01 0.000E+00 0.000E+00 0.000E+00 0.000E+00    1      147        0        0
    147  6.250E+01 0.000E+00 0.000E+00 0.000E+00 0.000E+00    1      148        0        0
    148  6.250E+01 0.000E+00 0.000E+00 0.000E+00 0.000E+00    1      149        0        0
    149  6.250E+01 0.000E+00 0.000E+00 0.000E+00 0.000E+00    1      150        0        0
    150  6.250E+01 0.000E+00 0.000E+00 0.000E+00 0.000E+00    1      151        0        0
    151  6.250E+01 0.000E+00 0.000E+00 0.000E+00 0.000E+00    1      152        0        0
    152  6.250E+01 0.000E+00 0.000E+00 0.000E+00 0.000E+00    1      153        0        0
    153  6.250E+01 0.000E+00 0.000E+00 0.000E+00 0.000E+00    1      154        0        0
    154  6.250E+01 0.000E+00 0.000E+00 0.000E+00 0.000E+00    1      155        0        0
    155  6.250E+01 0.000E+00 0.000E+00 0.000E+00 0.000E+00    1      156        0        0
    156  6.250E+01 0.000E+00 0.000E+00 0.000E+00 0.000E+00    1      157        0        0
    157  6.250E+01 0.000E+00 0.000E+00 0.000E+00 0.000E+00    1      158        0        0
    158  6.250E+01 0.000E+00 0.000E+00 0.000E+00 0.000E+00    1      159        0        0
    159  6.250E+01 0.000E+00 0.000E+00 0.000E+00 0.000E+00    1      160        0        0
    160  6.250E+01 0.000E+00 0.000E+00 0.000E+00 0.000E+00    1      161        0        0


         STREAMBED PROPERTIES AND STREAM DIMENSIONS

 SEGMENT     WIDTH OF STREAM     DEPTH OF STREAM    STREAM ROUGHNESS
    No.     UPPER     LOWER     UPPER     LOWER     CHANNEL      BANK

     1    5.000E+00 5.000E+00                      1.000E-01
     2    5.000E+00 5.000E+00                      1.000E-01
     3    5.000E+00 5.000E+00                      1.000E-01
     4    5.000E+00 5.000E+00                      1.000E-01
     5    5.000E+00 5.000E+00                      1.000E-01
     6    5.000E+00 5.000E+00                      1.000E-01
     7    5.000E+00 5.000E+00                      1.000E-01
     8    5.000E+00 5.000E+00                      1.000E-01
     9    5.000E+00 5.000E+00                      1.000E-01
    10    5.000E+00 5.000E+00                      1.000E-01
    11    5.000E+00 5.000E+00                      1.000E-01
    12    5.000E+00 5.000E+00                      1.000E-01
    13    5.000E+00 5.000E+00                      1.000E-01
    14    5.000E+00 5.000E+00                      1.000E-01
    15    5.000E+00 5.000E+00                      1.000E-01
    16    5.000E+00 5.000E+00                      1.000E-01
    17    5.000E+00 5.000E+00                      1.000E-01
    18    5.000E+00 5.000E+00                      1.000E-01
    19    5.000E+00 5.000E+00                      1.000E-01
    20    5.000E+00 5.000E+00                      1.000E-01
    21    5.000E+00 5.000E+00                      1.000E-01
    22    5.000E+00 5.000E+00                      1.000E-01
    23    5.000E+00 5.000E+00                      1.000E-01
    24    5.000E+00 5.000E+00                      1.000E-01
    25    5.000E+00 5.000E+00                      1.000E-01
    26    5.000E+00 5.000E+00                      1.000E-01
    27    5.000E+00 5.000E+00                      1.000E-01
    28    5.000E+00 5.000E+00                      1.000E-01
    29    5.000E+00 5.000E+00                      1.000E-01
    30    5.000E+00 5.000E+00                      1.000E-01
    31    5.000E+00 5.000E+00                      1.000E-01
    32    5.000E+00 5.000E+00                      1.000E-01
    33    5.000E+00 5.000E+00                      1.000E-01
    34    5.000E+00 5.000E+00                      1.000E-01
    35    5.000E+00 5.000E+00                      1.000E-01
    36    5.000E+00 5.000E+00                      1.000E-01
    37    5.000E+00 5.000E+00                      1.000E-01
    38    5.000E+00 5.000E+00                      1.000E-01
    39    5.000E+00 5.000E+00                      1.000E-01
    40    5.000E+00 5.000E+00                      1.000E-01
    41    5.000E+00 5.000E+00                      1.000E-01
    42    5.000E+00 5.000E+00                      1.000E-01
    43    5.000E+00 5.000E+00                      1.000E-01
    44    5.000E+00 5.000E+00                      1.000E-01
    45    5.000E+00 5.000E+00                      1.000E-01
    46    5.000E+00 5.000E+00                      1.000E-01
    47    5.000E+00 5.000E+00                      1.000E-01
    48    5.000E+00 5.000E+00                      1.000E-01
    49    5.000E+00 5.000E+00                      1.000E-01
    50    5.000E+00 5.000E+00                      1.000E-01
    51    5.000E+00 5.000E+00                      1.000E-01
    52    5.000E+00 5.000E+00                      1.000E-01
    53    5.000E+00 5.000E+00                      1.000E-01
    54    5.000E+00 5.000E+00                      1.000E-01
    55    5.000E+00 5.000E+00                      1.000E-01
    56    5.000E+00 5.000E+00                      1.000E-01
    57    5.000E+00 5.000E+00                      1.000E-01
    58    5.000E+00 5.000E+00                      1.000E-01
    59    5.000E+00 5.000E+00                      1.000E-01
    60    5.000E+00 5.000E+00                      1.000E-01
    61    5.000E+00 5.000E+00                      1.000E-01
    62    5.000E+00 5.000E+00                      1.000E-01
    63    5.000E+00 5.000E+00                      1.000E-01
    64    5.000E+00 5.000E+00                      1.000E-01
    65    5.000E+00 5.000E+00                      1.000E-01
    66    5.000E+00 5.000E+00                      1.000E-01
    67    5.000E+00 5.000E+00                      1.000E-01
    68    5.000E+00 5.000E+00                      1.000E-01
    69    5.000E+00 5.000E+00                      1.000E-01
    70    5.000E+00 5.000E+00                      1.000E-01
    71    5.000E+00 5.000E+00                      1.000E-01
    72    5.000E+00 5.000E+00                      1.000E-01
    73    5.000E+00 5.000E+00                      1.000E-01
    74    5.000E+00 5.000E+00                      1.000E-01
    75    5.000E+00 5.000E+00                      1.000E-01
    76    5.000E+00 5.000E+00                      1.000E-01
    77    5.000E+00 5.000E+00                      1.000E-01
    78    5.000E+00 5.000E+00                      1.000E-01
    79    5.000E+00 5.000E+00                      1.000E-01
    80    5.000E+00 5.000E+00                      1.000E-01
    81    5.000E+00 5.000E+00                      1.000E-01
    82    5.000E+00 5.000E+00                      1.000E-01
    83    5.000E+00 5.000E+00                      1.000E-01
    84    5.000E+00 5.000E+00                      1.000E-01
    85    5.000E+00 5.000E+00                      1.000E-01
    86    5.000E+00 5.000E+00                      1.000E-01
    87    5.000E+00 5.000E+00                      1.000E-01
    88    5.000E+00 5.000E+00                      1.000E-01
    89    5.000E+00 5.000E+00                      1.000E-01
    90    5.000E+00 5.000E+00                      1.000E-01
    91    5.000E+00 5.000E+00                      1.000E-01
    92    5.000E+00 5.000E+00                      1.000E-01
    93    5.000E+00 5.000E+00                      1.000E-01
    94    5.000E+00 5.000E+00                      1.000E-01
    95    5.000E+00 5.000E+00                      1.000E-01
    96    5.000E+00 5.000E+00                      1.000E-01
    97    5.000E+00 5.000E+00                      1.000E-01
    98    5.000E+00 5.000E+00                      1.000E-01
    99    5.000E+00 5.000E+00                      1.000E-01
   100    5.000E+00 5.000E+00                      1.000E-01
   101    5.000E+00 5.000E+00                      1.000E-01
   102    5.000E+00 5.000E+00                      1.000E-01
   103    5.000E+00 5.000E+00                      1.000E-01
   104    5.000E+00 5.000E+00                      1.000E-01
   105    5.000E+00 5.000E+00                      1.000E-01
   106    5.000E+00 5.000E+00                      1.000E-01
   107    5.000E+00 5.000E+00                      1.000E-01
   108    5.000E+00 5.000E+00                      1.000E-01
   109    5.000E+00 5.000E+00                      1.000E-01
   110    5.000E+00 5.000E+00                      1.000E-01
   111    5.000E+00 5.000E+00                      1.000E-01
   112    5.000E+00 5.000E+00                      1.000E-01
   113    5.000E+00 5.000E+00                      1.000E-01
   114    5.000E+00 5.000E+00                      1.000E-01
   115    5.000E+00 5.000E+00                      1.000E-01
   116    5.000E+00 5.000E+00                      1.000E-01
   117    5.000E+00 5.000E+00                      1.000E-01
   118    5.000E+00 5.000E+00                      1.000E-01
   119    5.000E+00 5.000E+00                      1.000E-01
   120    5.000E+00 5.000E+00                      1.000E-01
   121    5.000E+00 5.000E+00                      1.000E-01
   122    5.000E+00 5.000E+00                      1.000E-01
   123    5.000E+00 5.000E+00                      1.000E-01
   124    5.000E+00 5.000E+00                      1.000E-01
   125    5.000E+00 5.000E+00                      1.000E-01
   126    5.000E+00 5.000E+00                      1.000E-01
   127    5.000E+00 5.000E+00                      1.000E-01
   128    5.000E+00 5.000E+00                      1.000E-01
   129    5.000E+00 5.000E+00                      1.000E-01
   130    5.000E+00 5.000E+00                      1.000E-01
   131    5.000E+00 5.000E+00                      1.000E-01
   132    5.000E+00 5.000E+00                      1.000E-01
   133    5.000E+00 5.000E+00                      1.000E-01
   134    5.000E+00 5.000E+00                      1.000E-01
   135    5.000E+00 5.000E+00                      1.000E-01
   136    5.000E+00 5.000E+00                      1.000E-01
   137    5.000E+00 5.000E+00                      1.000E-01
   138    5.000E+00 5.000E+00                      1.000E-01
   139    5.000E+00 5.000E+00                      1.000E-01
   140    5.000E+00 5.000E+00                      1.000E-01
   141    5.000E+00 5.000E+00                      1.000E-01
   142    5.000E+00 5.000E+00                      1.000E-01
   143    5.000E+00 5.000E+00                      1.000E-01
   144    5.000E+00 5.000E+00                      1.000E-01
   145    5.000E+00 5.000E+00                      1.000E-01
   146    5.000E+00 5.000E+00                      1.000E-01
   147    5.000E+00 5.000E+00                      1.000E-01
   148    5.000E+00 5.000E+00                      1.000E-01
   149    5.000E+00 5.000E+00                      1.000E-01
   150    5.000E+00 5.000E+00                      1.000E-01
   151    5.000E+00 5.000E+00                      1.000E-01
   152    5.000E+00 5.000E+00                      1.000E-01
   153    5.000E+00 5.000E+00                      1.000E-01
   154    5.000E+00 5.000E+00                      1.000E-01
   155    5.000E+00 5.000E+00                      1.000E-01
   156    5.000E+00 5.000E+00                      1.000E-01
   157    5.000E+00 5.000E+00                      1.000E-01
   158    5.000E+00 5.000E+00                      1.000E-01
   159    5.000E+00 5.000E+00                      1.000E-01
   160    5.000E+00 5.000E+00                      1.000E-01



 
 SOLVING FOR HEAD 


 OUTER ITERATION SUMMARY
 -----------------------
 BT: Backtracking; LA: Linear Acceleration; UR: Under-relaxation

    Outer-Iteration  Inner-Iteration    Maximum Head Change  Maximum Head Change
        Number           Count               Value              Location
LA         1                8               0.34103                  4092           GWF-node number
LA         2                5               0.78907E-02              1388           GWF-node number
LA         3                2               0.29948E-03              1425           GWF-node number
LA         4                1              -0.36378E-04              4431           GWF-node number


     4 CALLS TO SPARSE MATRIX SOLVER PACKAGE  IN FLOW TIME STEP   1 STRESS PERIOD  25

 TOTAL OF       4OUTER ITERATIONS
  MAXIMUM CHANGE FOR EACH ITERATION:
   MAX. CHANGE        NODE  MAX. CHANGE        NODE  MAX. CHANGE        NODE  MAX. CHANGE        NODE  MAX. CHANGE        NODE
 ------------------------------------------------------------------------------------------------------------------------------------
   0.34103    ,       4092  0.78907E-02,       1388  0.29948E-03,       1425 -0.36378E-04,       4431

 OUTPUT CONTROL FOR STRESS PERIOD       25   TIME STEP        1
    SAVE HEAD FOR ALL LAYERS
    SAVE BUDGET
 UBDSV1U SAVING "         STORAGE" ON UNIT  50 AT TIME STEP      1, STRESS PERIOD     25
 UBDSV2U SAVING "   CONSTANT HEAD" ON UNIT  50 AT TIME STEP      1, STRESS PERIOD     25
 UBDSV1U SAVING "   FLOW JA FACE " ON UNIT  50 AT TIME STEP      1, STRESS PERIOD     25
 UBDSV4U SAVING "           WELLS" ON UNIT  50 AT TIME STEP      1, STRESS PERIOD     25
 UBDSV4U SAVING " HEAD DEP BOUNDS" ON UNIT  50 AT TIME STEP      1, STRESS PERIOD     25
 UBDSV3U SAVING "        RECHARGE" ON UNIT  50 AT TIME STEP      1, STRESS PERIOD     25
 UBDSV2U SAVING "  STREAM LEAKAGE" ON UNIT  50 AT TIME STEP      1, STRESS PERIOD     25




 HEAD WILL BE SAVED ON UNIT   51 AT END OF TIME STEP   1, STRESS PERIOD   25
1
  VOLUMETRIC BUDGET FOR ENTIRE MODEL AT END OF TIME STEP       1 IN STRESS PERIOD      25
  ---------------------------------------------------------------------------------------

     CUMULATIVE VOLUMES      L**3       RATES FOR THIS TIME STEP      L**3/T
     ------------------                 ------------------------

           IN:                                      IN:
           ---                                      ---
             STORAGE =      656903.9883               STORAGE =           0.0000
       CONSTANT HEAD =           0.0000         CONSTANT HEAD =           0.0000
               WELLS =           0.0000                 WELLS =           0.0000
     HEAD DEP BOUNDS =      278203.4491       HEAD DEP BOUNDS =         362.7838
            RECHARGE =     1932926.9697              RECHARGE =        4004.6985
      STREAM LEAKAGE =      153284.9983        STREAM LEAKAGE =         216.3240

            TOTAL IN =     3021319.4054              TOTAL IN =        4583.8063

          OUT:                                     OUT:
          ----                                     ----
             STORAGE =      664498.5934               STORAGE =        2724.6311
       CONSTANT HEAD =           0.0000         CONSTANT HEAD =           0.0000
               WELLS =     1688905.1196                 WELLS =        1138.4089
     HEAD DEP BOUNDS =      351821.5683       HEAD DEP BOUNDS =         524.6802
            RECHARGE =           0.0000              RECHARGE =           0.0000
      STREAM LEAKAGE =      316101.6191        STREAM LEAKAGE =         196.0377

           TOTAL OUT =     3021326.9004             TOTAL OUT =        4583.7579

            IN - OUT =          -7.4950              IN - OUT =       4.8406E-02

 PERCENT DISCREPANCY =          -0.00     PERCENT DISCREPANCY =           0.00






          TIME SUMMARY AT END OF TIME STEP         1 IN STRESS PERIOD        25
                    SECONDS     MINUTES      HOURS       DAYS        YEARS
                    -----------------------------------------------------------
   TIME STEP LENGTH 2.67840E+06  44640.      744.00      31.000     8.48734E-02
 STRESS PERIOD TIME 2.67840E+06  44640.      744.00      31.000     8.48734E-02
         TOTAL TIME 6.32448E+07 1.05408E+06  17568.      732.00      2.0041    
1

 Run end date and time (yyyy/mm/dd hh:mm:ss): 2021/03/30 10:40:35
 Elapsed run time:  0.266 Seconds

